/*--------------------------------*- C++ -*----------------------------------*\
| =========                 |                                                 |
| \\      /  F ield         | OpenFOAM: The Open Source CFD Toolbox           |
|  \\    /   O peration     | Version:  2.2.0                                 |
|   \\  /    A nd           | Web:      www.OpenFOAM.org                      |
|    \\/     M anipulation  |                                                 |
\*---------------------------------------------------------------------------*/
FoamFile
{
    version     2.0;
    format      ascii;
    class       featureEdgeMesh;
    location    "constant/triSurface";
    object      Flipper.eMesh;
}
// * * * * * * * * * * * * * * * * * * * * * * * * * * * * * * * * * * * * * //


// points:

322
(
(0.11089 0.010195 5.07855e-05)
(0.110902 0.0101815 0.0250508)
(0.110902 0.0101788 5.07855e-05)
(0.1109 0.0101795 0.0500508)
(0.110902 0.0101811 0.0500508)
(0.110883 0.0101868 0.0500508)
(0.110902 0.0101815 0.0125508)
(0.110886 0.0101955 5.07855e-05)
(0.110887 0.0101666 5.07855e-05)
(0.110855 0.0101999 5.07855e-05)
(0.110886 0.010166 5.07855e-05)
(0.110856 0.010162 5.07855e-05)
(0.11084 0.0102019 5.07855e-05)
(0.110837 0.0101595 5.07855e-05)
(0.110805 0.0102089 5.07855e-05)
(0.110633 0.0101184 5.07855e-05)
(0.110583 0.0101056 5.07855e-05)
(0.110507 0.010274 5.07855e-05)
(0.110651 0.0102395 5.07855e-05)
(0.110677 0.0101281 5.07855e-05)
(0.110706 0.0102286 5.07855e-05)
(0.110707 0.0101336 5.07855e-05)
(0.110811 0.0101528 5.07855e-05)
(0.110523 0.0100896 5.07855e-05)
(0.11045 0.0100712 5.07855e-05)
(0.110109 0.010369 5.07855e-05)
(0.110364 0.0100506 5.07855e-05)
(0.110111 0.0099905 5.07855e-05)
(0.109315 0.010559 5.07855e-05)
(0.109316 0.00980126 5.07855e-05)
(0.108967 0.00971815 5.07855e-05)
(0.108482 0.0107582 5.07855e-05)
(0.108385 0.00958105 5.07855e-05)
(0.107725 0.0109327 5.07855e-05)
(0.0125726 0.0137879 5.07855e-05)
(0.0131797 0.0143312 5.07855e-05)
(0.0115768 0.0125016 5.07855e-05)
(0.0117882 0.0128518 5.07855e-05)
(0.0113842 0.0121825 5.07855e-05)
(0.0113707 0.0121496 5.07855e-05)
(0.0118179 0.0129011 5.07855e-05)
(0.0120418 0.0131714 5.07855e-05)
(0.012302 0.0134855 5.07855e-05)
(0.0124948 0.0137183 5.07855e-05)
(0.0204804 0.00250525 5.07855e-05)
(0.0200684 0.00262144 5.07855e-05)
(0.0189307 0.00301998 5.07855e-05)
(0.0217161 0.00215673 5.07855e-05)
(0.0220571 0.00208173 5.07855e-05)
(0.0152099 0.0157369 5.07855e-05)
(0.0159225 0.0160842 5.07855e-05)
(0.0145079 0.0152771 5.07855e-05)
(0.0138235 0.0148287 5.07855e-05)
(0.0134957 0.014614 5.07855e-05)
(0.0204859 0.0178355 5.07855e-05)
(0.0220626 0.0182614 5.07855e-05)
(0.0176862 0.00345595 5.07855e-05)
(0.0174002 0.00358568 5.07855e-05)
(0.0159136 0.00425997 5.07855e-05)
(0.0196554 0.0176112 5.07855e-05)
(0.0189305 0.0173437 5.07855e-05)
(0.0173984 0.0167783 5.07855e-05)
(0.0171865 0.0167001 5.07855e-05)
(0.0268639 0.0011454 5.07855e-05)
(0.025047 0.00142417 5.07855e-05)
(0.0236521 0.00173095 5.07855e-05)
(0.0266861 0.0192169 5.07855e-05)
(0.0268601 0.0192387 5.07855e-05)
(0.0236489 0.0186421 5.07855e-05)
(0.023057 0.01853 5.07855e-05)
(0.0138182 0.00552277 5.07855e-05)
(0.0131848 0.00603859 5.07855e-05)
(0.0127228 0.00641489 5.07855e-05)
(0.0125783 0.00657795 5.07855e-05)
(0.0145034 0.00508016 5.07855e-05)
(0.0139691 0.00539991 5.07855e-05)
(0.0157493 0.00433449 5.07855e-05)
(0.0123083 0.0068827 5.07855e-05)
(0.0120378 0.00718789 5.07855e-05)
(0.0119181 0.00732301 5.07855e-05)
(0.0117964 0.00751544 5.07855e-05)
(0.0115776 0.00786127 5.07855e-05)
(0.0114171 0.00811493 5.07855e-05)
(0.0113749 0.00821419 5.07855e-05)
(0.072411 0.0175219 5.07855e-05)
(0.0788726 0.0165551 5.07855e-05)
(0.0724119 0.00283897 5.07855e-05)
(0.0699012 0.00246516 5.07855e-05)
(0.069943 0.0178912 5.07855e-05)
(0.0659354 0.00198246 5.07855e-05)
(0.0659348 0.0183801 5.07855e-05)
(0.0609631 0.00137725 5.07855e-05)
(0.0610731 0.0189731 5.07855e-05)
(0.0594465 0.00122159 5.07855e-05)
(0.0594446 0.0191261 5.07855e-05)
(0.058941 0.00116971 5.07855e-05)
(0.054559 0.0195854 5.07855e-05)
(0.0529364 0.000669303 5.07855e-05)
(0.052936 0.0196876 5.07855e-05)
(0.0517012 0.00056636 5.07855e-05)
(0.0496757 0.0198927 5.07855e-05)
(0.0496766 0.000466568 5.07855e-05)
(0.047508 0.020029 5.07855e-05)
(0.0464138 0.000305745 5.07855e-05)
(0.0464138 0.0200558 5.07855e-05)
(0.0452643 0.00024909 5.07855e-05)
(0.043148 0.0201359 5.07855e-05)
(0.0431487 0.000225731 5.07855e-05)
(0.0412861 0.0201815 5.07855e-05)
(0.0398822 0.000189666 5.07855e-05)
(0.0398824 0.0201549 5.07855e-05)
(0.03957 0.000186218 5.07855e-05)
(0.0366163 0.0200931 5.07855e-05)
(0.0366174 0.000285055 5.07855e-05)
(0.0357886 0.0200774 5.07855e-05)
(0.0341782 0.000366707 5.07855e-05)
(0.0333558 0.0199114 5.07855e-05)
(0.0333539 0.000420087 5.07855e-05)
(0.0309228 0.0197454 5.07855e-05)
(0.0330792 0.00043788 5.07855e-05)
(0.0301014 0.019643 5.07855e-05)
(0.0301016 0.000724891 5.07855e-05)
(0.0287645 0.000853774 5.07855e-05)
(0.0110843 0.00897437 5.07855e-05)
(0.0110357 0.0091727 5.07855e-05)
(0.0111354 0.00877727 5.07855e-05)
(0.0111289 0.00879256 5.07855e-05)
(0.0112152 0.00858971 5.07855e-05)
(0.107726 0.00942743 5.07855e-05)
(0.107507 0.00937622 5.07855e-05)
(0.105453 0.011456 5.07855e-05)
(0.10454 0.00870505 5.07855e-05)
(0.10454 0.0116578 5.07855e-05)
(0.1018 0.0122633 5.07855e-05)
(0.103552 0.00848132 5.07855e-05)
(0.101901 0.00812059 5.07855e-05)
(0.0981461 0.0130013 5.07855e-05)
(0.0981467 0.00736225 5.07855e-05)
(0.0917419 0.014295 5.07855e-05)
(0.0917425 0.00606855 5.07855e-05)
(0.0907358 0.0144983 5.07855e-05)
(0.0906297 0.00584377 5.07855e-05)
(0.0853118 0.0154508 5.07855e-05)
(0.0853121 0.00491399 5.07855e-05)
(0.0798878 0.0164032 5.07855e-05)
(0.0793668 0.00387444 5.07855e-05)
(0.0788743 0.00380112 5.07855e-05)
(0.0109871 0.00937098 5.07855e-05)
(0.0109576 0.00949144 5.07855e-05)
(0.0109512 0.00957092 5.07855e-05)
(0.0109349 0.00977432 5.07855e-05)
(0.0109022 0.010181 5.07855e-05)
(0.0109303 0.0105882 5.07855e-05)
(0.010947 0.0107912 5.07855e-05)
(0.0109922 0.01099 5.07855e-05)
(0.0109432 0.0107744 5.07855e-05)
(0.0110826 0.0113882 5.07855e-05)
(0.0111119 0.0115175 5.07855e-05)
(0.0111389 0.0115833 5.07855e-05)
(0.0110374 0.0111892 5.07855e-05)
(0.0112161 0.0117721 5.07855e-05)
(0.110885 0.0101755 0.0500508)
(0.110853 0.0101956 0.0500508)
(0.110854 0.0101676 0.0500508)
(0.110848 0.010197 0.0500508)
(0.110806 0.0101548 0.0500508)
(0.110805 0.0102078 0.0500508)
(0.110708 0.0101292 0.0500508)
(0.110706 0.0102321 0.0500508)
(0.110509 0.0100824 0.0500508)
(0.0117937 0.00751421 0.0500508)
(0.011998 0.00721539 0.0500508)
(0.012029 0.00718009 0.0500508)
(0.0300994 0.0196585 0.0500508)
(0.0275216 0.0193429 0.0500508)
(0.0189223 0.0173658 0.0500508)
(0.0174786 0.0168232 0.0500508)
(0.026861 0.0192348 0.0500508)
(0.0249927 0.0189289 0.0500508)
(0.0236482 0.0186471 0.0500508)
(0.0189718 0.0173843 0.0500508)
(0.0204794 0.0178602 0.0500508)
(0.0206371 0.01791 0.0500508)
(0.0247889 0.00147126 0.0500508)
(0.0268603 0.00112194 0.0500508)
(0.0220574 0.0182805 0.0500508)
(0.0227035 0.0184491 0.0500508)
(0.0271454 0.00107386 0.0500508)
(0.0297301 0.00074008 0.0500508)
(0.030304 0.0196835 0.0500508)
(0.0300997 0.000705613 0.0500508)
(0.0330883 0.0199248 0.0500508)
(0.0325592 0.000476256 0.0500508)
(0.0333538 0.019939 0.0500508)
(0.0333544 0.000428301 0.0500508)
(0.0364282 0.0201031 0.0500508)
(0.0356186 0.000291764 0.0500508)
(0.036616 0.0201071 0.0500508)
(0.0148249 0.0155147 0.0500508)
(0.0144932 0.0152993 0.0500508)
(0.0159124 0.0161054 0.0500508)
(0.0160512 0.0161807 0.0500508)
(0.0236481 0.00171347 0.0500508)
(0.0173957 0.0167859 0.0500508)
(0.0189226 0.0029966 0.0500508)
(0.018981 0.00297465 0.0500508)
(0.0204796 0.00250212 0.0500508)
(0.0139139 0.0149231 0.0500508)
(0.0138133 0.014845 0.0500508)
(0.022646 0.00192624 0.0500508)
(0.0131679 0.014344 0.0500508)
(0.0220572 0.00208021 0.0500508)
(0.020654 0.00244714 0.0500508)
(0.012295 0.0134912 0.0500508)
(0.012033 0.0131786 0.0500508)
(0.012414 0.0136331 0.0500508)
(0.0125746 0.0137862 0.0500508)
(0.0119145 0.0130373 0.0500508)
(0.0117914 0.0128495 0.0500508)
(0.0122984 0.00687391 0.0500508)
(0.0131242 0.0143101 0.0500508)
(0.0174576 0.00354732 0.0500508)
(0.0173954 0.00357517 0.0500508)
(0.0161262 0.00414393 0.0500508)
(0.0159126 0.00425694 0.0500508)
(0.0112013 0.0117677 0.0500508)
(0.0111453 0.0115819 0.0500508)
(0.0113806 0.0121448 0.0500508)
(0.0115155 0.0124286 0.0500508)
(0.0115671 0.0125073 0.0500508)
(0.0112113 0.00858737 0.0500508)
(0.011247 0.00848046 0.0500508)
(0.0113797 0.00821711 0.0500508)
(0.0115635 0.00785233 0.0500508)
(0.0150906 0.00469165 0.0500508)
(0.0144943 0.00506458 0.0500508)
(0.0140764 0.00532591 0.0500508)
(0.0138164 0.00552122 0.0500508)
(0.110508 0.0102809 0.0500508)
(0.110445 0.0102967 0.0500508)
(0.110111 0.00998886 0.0500508)
(0.110111 0.010374 0.0500508)
(0.109316 0.00980178 0.0500508)
(0.109315 0.0105584 0.0500508)
(0.107726 0.00942767 0.0500508)
(0.107724 0.0109271 0.0500508)
(0.107569 0.00939056 0.0500508)
(0.105019 0.0115538 0.0500508)
(0.104539 0.00871353 0.0500508)
(0.10454 0.0116581 0.0500508)
(0.101438 0.00802073 0.0500508)
(0.0997783 0.0126944 0.0500508)
(0.0981515 0.00733847 0.0500508)
(0.0981508 0.0130248 0.0500508)
(0.0955369 0.0067957 0.0500508)
(0.0934732 0.0139745 0.0500508)
(0.0917431 0.00606587 0.0500508)
(0.0917427 0.0142984 0.0500508)
(0.0891399 0.00556508 0.0500508)
(0.086974 0.0151911 0.0500508)
(0.0853166 0.00488832 0.0500508)
(0.0853161 0.015475 0.0500508)
(0.082783 0.00443984 0.0500508)
(0.0800492 0.0163771 0.0500508)
(0.0788733 0.00380647 0.0500508)
(0.0788732 0.0165592 0.0500508)
(0.0764341 0.00341131 0.0500508)
(0.0735242 0.0173874 0.0500508)
(0.072414 0.00282473 0.0500508)
(0.0724138 0.0175401 0.0500508)
(0.0704637 0.00254015 0.0500508)
(0.0674743 0.0182191 0.0500508)
(0.0659384 0.00195708 0.0500508)
(0.0659375 0.0184021 0.0500508)
(0.0648565 0.00181767 0.0500508)
(0.0618062 0.018894 0.0500508)
(0.0594941 0.0012249 0.0500508)
(0.059445 0.0191314 0.0500508)
(0.0594466 0.00122057 0.0500508)
(0.0571006 0.0193671 0.0500508)
(0.0546842 0.000787348 0.0500508)
(0.052937 0.0197055 0.0500508)
(0.052937 0.000664978 0.0500508)
(0.0525928 0.0197334 0.0500508)
(0.050207 0.000473778 0.0500508)
(0.0496766 0.0199065 0.0500508)
(0.0496775 0.000448631 0.0500508)
(0.0480508 0.0200029 0.0500508)
(0.0464144 0.00029366 0.0500508)
(0.0464137 0.0200597 0.0500508)
(0.0460579 0.000276731 0.0500508)
(0.043853 0.0201484 0.0500508)
(0.0431488 0.000209273 0.0500508)
(0.0431486 0.0201539 0.0500508)
(0.0422191 0.000187716 0.0500508)
(0.0399851 0.0201788 0.0500508)
(0.0398823 0.000194913 0.0500508)
(0.039882 0.0201766 0.0500508)
(0.0386699 0.000198647 0.0500508)
(0.0366165 0.000261309 0.0500508)
(0.0110864 0.0113864 0.0500508)
(0.0110024 0.0111079 0.0500508)
(0.0109863 0.010992 0.0500508)
(0.011566 0.00784726 0.0500508)
(0.013242 0.00595278 0.0500508)
(0.0131694 0.00601911 0.0500508)
(0.0125644 0.00657157 0.0500508)
(0.0109302 0.0105876 0.0500508)
(0.0109103 0.0104441 0.0500508)
(0.0109144 0.0101812 0.0500508)
(0.011033 0.00912122 0.0500508)
(0.011082 0.00897456 0.0500508)
(0.0109902 0.00937091 0.0500508)
(0.0109206 0.00977662 0.0500508)
(0.0111466 0.00878092 0.0500508)
(0.110883 0.0101737 0.0250508)
(0.110902 0.0101815 0.0125508)
(0.110886 0.010181 0.0375508)
(0.110886 0.0101811 0.0375508)
(0.110902 0.0101816 0.0125508)
(0.110886 0.010181 0.0375508)
(0.110902 0.010181 0.0500508)
)


// edges:

328
(
(7 0)
(0 2)
(2 8)
(9 7)
(8 10)
(10 11)
(12 9)
(11 13)
(14 12)
(15 16)
(17 18)
(19 15)
(18 20)
(21 19)
(20 14)
(22 21)
(13 22)
(16 23)
(23 24)
(25 17)
(24 26)
(26 27)
(28 25)
(27 29)
(29 30)
(31 28)
(30 32)
(33 31)
(34 35)
(36 37)
(38 36)
(39 38)
(37 40)
(40 41)
(41 42)
(42 43)
(43 34)
(44 45)
(45 46)
(47 44)
(48 47)
(49 50)
(51 49)
(52 51)
(53 52)
(35 53)
(54 55)
(46 56)
(56 57)
(57 58)
(59 54)
(60 59)
(61 60)
(50 62)
(62 61)
(63 64)
(64 65)
(66 67)
(65 48)
(68 66)
(55 69)
(69 68)
(70 71)
(72 73)
(71 72)
(74 75)
(75 70)
(76 74)
(58 76)
(73 77)
(77 78)
(79 80)
(78 79)
(80 81)
(81 82)
(82 83)
(84 85)
(86 87)
(88 84)
(87 89)
(90 88)
(89 91)
(92 90)
(91 93)
(94 92)
(93 95)
(96 94)
(95 97)
(98 96)
(97 99)
(100 98)
(99 101)
(102 100)
(101 103)
(104 102)
(103 105)
(106 104)
(105 107)
(108 106)
(107 109)
(110 108)
(109 111)
(112 110)
(111 113)
(114 112)
(113 115)
(116 114)
(115 117)
(118 116)
(117 119)
(120 118)
(119 121)
(67 120)
(121 122)
(122 63)
(123 124)
(125 126)
(126 123)
(127 125)
(83 127)
(32 128)
(128 129)
(130 33)
(129 131)
(132 130)
(133 132)
(131 134)
(134 135)
(136 133)
(135 137)
(138 136)
(137 139)
(140 138)
(139 141)
(142 140)
(141 143)
(144 142)
(143 145)
(85 144)
(145 146)
(146 86)
(124 147)
(147 148)
(148 149)
(149 150)
(150 151)
(151 152)
(153 154)
(152 155)
(155 153)
(156 157)
(157 158)
(154 159)
(159 156)
(160 39)
(158 160)
(161 3)
(4 5)
(5 162)
(163 161)
(162 164)
(165 163)
(164 166)
(167 165)
(166 168)
(169 167)
(170 171)
(171 172)
(173 174)
(175 176)
(174 177)
(177 178)
(178 179)
(180 175)
(181 180)
(182 181)
(183 184)
(185 182)
(186 185)
(179 186)
(184 187)
(187 188)
(189 173)
(188 190)
(191 189)
(190 192)
(193 191)
(192 194)
(195 193)
(194 196)
(197 195)
(198 199)
(200 198)
(201 200)
(202 183)
(203 201)
(176 203)
(204 205)
(205 206)
(199 207)
(207 208)
(209 202)
(208 210)
(211 209)
(212 211)
(206 212)
(213 214)
(215 213)
(216 215)
(217 218)
(214 217)
(172 219)
(210 220)
(220 216)
(221 204)
(222 221)
(223 222)
(224 223)
(225 226)
(227 225)
(228 227)
(229 228)
(230 231)
(231 232)
(232 233)
(234 224)
(235 234)
(236 235)
(237 236)
(168 238)
(238 239)
(240 169)
(239 241)
(242 240)
(241 243)
(244 242)
(243 245)
(246 244)
(245 247)
(248 246)
(247 249)
(250 248)
(249 251)
(252 250)
(251 253)
(254 252)
(253 255)
(256 254)
(255 257)
(258 256)
(257 259)
(260 258)
(259 261)
(262 260)
(261 263)
(264 262)
(263 265)
(266 264)
(265 267)
(268 266)
(267 269)
(270 268)
(269 271)
(272 270)
(271 273)
(274 272)
(273 275)
(276 274)
(275 277)
(278 276)
(277 279)
(280 278)
(279 281)
(282 280)
(281 283)
(284 282)
(283 285)
(286 284)
(285 287)
(288 286)
(287 289)
(290 288)
(289 291)
(292 290)
(291 293)
(294 292)
(293 295)
(296 294)
(295 297)
(298 296)
(297 197)
(299 298)
(196 299)
(226 300)
(300 301)
(301 302)
(218 229)
(233 303)
(303 170)
(304 237)
(305 304)
(306 305)
(219 306)
(302 307)
(307 308)
(308 309)
(310 311)
(312 310)
(309 313)
(313 312)
(314 230)
(311 314)
(315 316)
(316 2)
(2 6)
(4 317)
(318 5)
(319 0)
(1 320)
(6 1)
(318 1)
(4 320)
(3 321)
(321 4)
(6 315)
(317 5)
(2 319)
(4 3)
)

// * * * * * * * * * * * * * * * * * * * * * * * * * * * * * * * * * * * * * //


// ************************************************************************* //
