/*--------------------------------*- C++ -*----------------------------------*\
| =========                 |                                                 |
| \\      /  F ield         | OpenFOAM: The Open Source CFD Toolbox           |
|  \\    /   O peration     | Version:  2.2.0                                 |
|   \\  /    A nd           | Web:      www.OpenFOAM.org                      |
|    \\/     M anipulation  |                                                 |
\*---------------------------------------------------------------------------*/
FoamFile
{
    version     2.0;
    format      ascii;
    class       extendedFeatureEdgeMesh;
    location    "constant/extendedFeatureEdgeMesh";
    object      Flipper.extendedFeatureEdgeMesh;
}
// * * * * * * * * * * * * * * * * * * * * * * * * * * * * * * * * * * * * * //

// points

322
(
(0.11089 0.010195 5.07855e-05)
(0.110902 0.0101815 0.0250508)
(0.110902 0.0101788 5.07855e-05)
(0.1109 0.0101795 0.0500508)
(0.110902 0.0101811 0.0500508)
(0.110883 0.0101868 0.0500508)
(0.110902 0.0101815 0.0125508)
(0.110886 0.0101955 5.07855e-05)
(0.110887 0.0101666 5.07855e-05)
(0.110855 0.0101999 5.07855e-05)
(0.110886 0.010166 5.07855e-05)
(0.110856 0.010162 5.07855e-05)
(0.11084 0.0102019 5.07855e-05)
(0.110837 0.0101595 5.07855e-05)
(0.110805 0.0102089 5.07855e-05)
(0.110633 0.0101184 5.07855e-05)
(0.110583 0.0101056 5.07855e-05)
(0.110507 0.010274 5.07855e-05)
(0.110651 0.0102395 5.07855e-05)
(0.110677 0.0101281 5.07855e-05)
(0.110706 0.0102286 5.07855e-05)
(0.110707 0.0101336 5.07855e-05)
(0.110811 0.0101528 5.07855e-05)
(0.110523 0.0100896 5.07855e-05)
(0.11045 0.0100712 5.07855e-05)
(0.110109 0.010369 5.07855e-05)
(0.110364 0.0100506 5.07855e-05)
(0.110111 0.0099905 5.07855e-05)
(0.109315 0.010559 5.07855e-05)
(0.109316 0.00980126 5.07855e-05)
(0.108967 0.00971815 5.07855e-05)
(0.108482 0.0107582 5.07855e-05)
(0.108385 0.00958105 5.07855e-05)
(0.107725 0.0109327 5.07855e-05)
(0.0125726 0.0137879 5.07855e-05)
(0.0131797 0.0143312 5.07855e-05)
(0.0115768 0.0125016 5.07855e-05)
(0.0117882 0.0128518 5.07855e-05)
(0.0113842 0.0121825 5.07855e-05)
(0.0113707 0.0121496 5.07855e-05)
(0.0118179 0.0129011 5.07855e-05)
(0.0120418 0.0131714 5.07855e-05)
(0.012302 0.0134855 5.07855e-05)
(0.0124948 0.0137183 5.07855e-05)
(0.0204804 0.00250525 5.07855e-05)
(0.0200684 0.00262144 5.07855e-05)
(0.0189307 0.00301998 5.07855e-05)
(0.0217161 0.00215673 5.07855e-05)
(0.0220571 0.00208173 5.07855e-05)
(0.0152099 0.0157369 5.07855e-05)
(0.0159225 0.0160842 5.07855e-05)
(0.0145079 0.0152771 5.07855e-05)
(0.0138235 0.0148287 5.07855e-05)
(0.0134957 0.014614 5.07855e-05)
(0.0204859 0.0178355 5.07855e-05)
(0.0220626 0.0182614 5.07855e-05)
(0.0176862 0.00345595 5.07855e-05)
(0.0174002 0.00358568 5.07855e-05)
(0.0159136 0.00425997 5.07855e-05)
(0.0196554 0.0176112 5.07855e-05)
(0.0189305 0.0173437 5.07855e-05)
(0.0173984 0.0167783 5.07855e-05)
(0.0171865 0.0167001 5.07855e-05)
(0.0268639 0.0011454 5.07855e-05)
(0.025047 0.00142417 5.07855e-05)
(0.0236521 0.00173095 5.07855e-05)
(0.0266861 0.0192169 5.07855e-05)
(0.0268601 0.0192387 5.07855e-05)
(0.0236489 0.0186421 5.07855e-05)
(0.023057 0.01853 5.07855e-05)
(0.0138182 0.00552277 5.07855e-05)
(0.0131848 0.00603859 5.07855e-05)
(0.0127228 0.00641489 5.07855e-05)
(0.0125783 0.00657795 5.07855e-05)
(0.0145034 0.00508016 5.07855e-05)
(0.0139691 0.00539991 5.07855e-05)
(0.0157493 0.00433449 5.07855e-05)
(0.0123083 0.0068827 5.07855e-05)
(0.0120378 0.00718789 5.07855e-05)
(0.0119181 0.00732301 5.07855e-05)
(0.0117964 0.00751544 5.07855e-05)
(0.0115776 0.00786127 5.07855e-05)
(0.0114171 0.00811493 5.07855e-05)
(0.0113749 0.00821419 5.07855e-05)
(0.072411 0.0175219 5.07855e-05)
(0.0788726 0.0165551 5.07855e-05)
(0.0724119 0.00283897 5.07855e-05)
(0.0699012 0.00246516 5.07855e-05)
(0.069943 0.0178912 5.07855e-05)
(0.0659354 0.00198246 5.07855e-05)
(0.0659348 0.0183801 5.07855e-05)
(0.0609631 0.00137725 5.07855e-05)
(0.0610731 0.0189731 5.07855e-05)
(0.0594465 0.00122159 5.07855e-05)
(0.0594446 0.0191261 5.07855e-05)
(0.058941 0.00116971 5.07855e-05)
(0.054559 0.0195854 5.07855e-05)
(0.0529364 0.000669303 5.07855e-05)
(0.052936 0.0196876 5.07855e-05)
(0.0517012 0.00056636 5.07855e-05)
(0.0496757 0.0198927 5.07855e-05)
(0.0496766 0.000466568 5.07855e-05)
(0.047508 0.020029 5.07855e-05)
(0.0464138 0.000305745 5.07855e-05)
(0.0464138 0.0200558 5.07855e-05)
(0.0452643 0.00024909 5.07855e-05)
(0.043148 0.0201359 5.07855e-05)
(0.0431487 0.000225731 5.07855e-05)
(0.0412861 0.0201815 5.07855e-05)
(0.0398822 0.000189666 5.07855e-05)
(0.0398824 0.0201549 5.07855e-05)
(0.03957 0.000186218 5.07855e-05)
(0.0366163 0.0200931 5.07855e-05)
(0.0366174 0.000285055 5.07855e-05)
(0.0357886 0.0200774 5.07855e-05)
(0.0341782 0.000366707 5.07855e-05)
(0.0333558 0.0199114 5.07855e-05)
(0.0333539 0.000420087 5.07855e-05)
(0.0309228 0.0197454 5.07855e-05)
(0.0330792 0.00043788 5.07855e-05)
(0.0301014 0.019643 5.07855e-05)
(0.0301016 0.000724891 5.07855e-05)
(0.0287645 0.000853774 5.07855e-05)
(0.0110843 0.00897437 5.07855e-05)
(0.0110357 0.0091727 5.07855e-05)
(0.0111354 0.00877727 5.07855e-05)
(0.0111289 0.00879256 5.07855e-05)
(0.0112152 0.00858971 5.07855e-05)
(0.107726 0.00942743 5.07855e-05)
(0.107507 0.00937622 5.07855e-05)
(0.105453 0.011456 5.07855e-05)
(0.10454 0.00870505 5.07855e-05)
(0.10454 0.0116578 5.07855e-05)
(0.1018 0.0122633 5.07855e-05)
(0.103552 0.00848132 5.07855e-05)
(0.101901 0.00812059 5.07855e-05)
(0.0981461 0.0130013 5.07855e-05)
(0.0981467 0.00736225 5.07855e-05)
(0.0917419 0.014295 5.07855e-05)
(0.0917425 0.00606855 5.07855e-05)
(0.0907358 0.0144983 5.07855e-05)
(0.0906297 0.00584377 5.07855e-05)
(0.0853118 0.0154508 5.07855e-05)
(0.0853121 0.00491399 5.07855e-05)
(0.0798878 0.0164032 5.07855e-05)
(0.0793668 0.00387444 5.07855e-05)
(0.0788743 0.00380112 5.07855e-05)
(0.0109871 0.00937098 5.07855e-05)
(0.0109576 0.00949144 5.07855e-05)
(0.0109512 0.00957092 5.07855e-05)
(0.0109349 0.00977432 5.07855e-05)
(0.0109022 0.010181 5.07855e-05)
(0.0109303 0.0105882 5.07855e-05)
(0.010947 0.0107912 5.07855e-05)
(0.0109922 0.01099 5.07855e-05)
(0.0109432 0.0107744 5.07855e-05)
(0.0110826 0.0113882 5.07855e-05)
(0.0111119 0.0115175 5.07855e-05)
(0.0111389 0.0115833 5.07855e-05)
(0.0110374 0.0111892 5.07855e-05)
(0.0112161 0.0117721 5.07855e-05)
(0.110885 0.0101755 0.0500508)
(0.110853 0.0101956 0.0500508)
(0.110854 0.0101676 0.0500508)
(0.110848 0.010197 0.0500508)
(0.110806 0.0101548 0.0500508)
(0.110805 0.0102078 0.0500508)
(0.110708 0.0101292 0.0500508)
(0.110706 0.0102321 0.0500508)
(0.110509 0.0100824 0.0500508)
(0.0117937 0.00751421 0.0500508)
(0.011998 0.00721539 0.0500508)
(0.012029 0.00718009 0.0500508)
(0.0300994 0.0196585 0.0500508)
(0.0275216 0.0193429 0.0500508)
(0.0189223 0.0173658 0.0500508)
(0.0174786 0.0168232 0.0500508)
(0.026861 0.0192348 0.0500508)
(0.0249927 0.0189289 0.0500508)
(0.0236482 0.0186471 0.0500508)
(0.0189718 0.0173843 0.0500508)
(0.0204794 0.0178602 0.0500508)
(0.0206371 0.01791 0.0500508)
(0.0247889 0.00147126 0.0500508)
(0.0268603 0.00112194 0.0500508)
(0.0220574 0.0182805 0.0500508)
(0.0227035 0.0184491 0.0500508)
(0.0271454 0.00107386 0.0500508)
(0.0297301 0.00074008 0.0500508)
(0.030304 0.0196835 0.0500508)
(0.0300997 0.000705613 0.0500508)
(0.0330883 0.0199248 0.0500508)
(0.0325592 0.000476256 0.0500508)
(0.0333538 0.019939 0.0500508)
(0.0333544 0.000428301 0.0500508)
(0.0364282 0.0201031 0.0500508)
(0.0356186 0.000291764 0.0500508)
(0.036616 0.0201071 0.0500508)
(0.0148249 0.0155147 0.0500508)
(0.0144932 0.0152993 0.0500508)
(0.0159124 0.0161054 0.0500508)
(0.0160512 0.0161807 0.0500508)
(0.0236481 0.00171347 0.0500508)
(0.0173957 0.0167859 0.0500508)
(0.0189226 0.0029966 0.0500508)
(0.018981 0.00297465 0.0500508)
(0.0204796 0.00250212 0.0500508)
(0.0139139 0.0149231 0.0500508)
(0.0138133 0.014845 0.0500508)
(0.022646 0.00192624 0.0500508)
(0.0131679 0.014344 0.0500508)
(0.0220572 0.00208021 0.0500508)
(0.020654 0.00244714 0.0500508)
(0.012295 0.0134912 0.0500508)
(0.012033 0.0131786 0.0500508)
(0.012414 0.0136331 0.0500508)
(0.0125746 0.0137862 0.0500508)
(0.0119145 0.0130373 0.0500508)
(0.0117914 0.0128495 0.0500508)
(0.0122984 0.00687391 0.0500508)
(0.0131242 0.0143101 0.0500508)
(0.0174576 0.00354732 0.0500508)
(0.0173954 0.00357517 0.0500508)
(0.0161262 0.00414393 0.0500508)
(0.0159126 0.00425694 0.0500508)
(0.0112013 0.0117677 0.0500508)
(0.0111453 0.0115819 0.0500508)
(0.0113806 0.0121448 0.0500508)
(0.0115155 0.0124286 0.0500508)
(0.0115671 0.0125073 0.0500508)
(0.0112113 0.00858737 0.0500508)
(0.011247 0.00848046 0.0500508)
(0.0113797 0.00821711 0.0500508)
(0.0115635 0.00785233 0.0500508)
(0.0150906 0.00469165 0.0500508)
(0.0144943 0.00506458 0.0500508)
(0.0140764 0.00532591 0.0500508)
(0.0138164 0.00552122 0.0500508)
(0.110508 0.0102809 0.0500508)
(0.110445 0.0102967 0.0500508)
(0.110111 0.00998886 0.0500508)
(0.110111 0.010374 0.0500508)
(0.109316 0.00980178 0.0500508)
(0.109315 0.0105584 0.0500508)
(0.107726 0.00942767 0.0500508)
(0.107724 0.0109271 0.0500508)
(0.107569 0.00939056 0.0500508)
(0.105019 0.0115538 0.0500508)
(0.104539 0.00871353 0.0500508)
(0.10454 0.0116581 0.0500508)
(0.101438 0.00802073 0.0500508)
(0.0997783 0.0126944 0.0500508)
(0.0981515 0.00733847 0.0500508)
(0.0981508 0.0130248 0.0500508)
(0.0955369 0.0067957 0.0500508)
(0.0934732 0.0139745 0.0500508)
(0.0917431 0.00606587 0.0500508)
(0.0917427 0.0142984 0.0500508)
(0.0891399 0.00556508 0.0500508)
(0.086974 0.0151911 0.0500508)
(0.0853166 0.00488832 0.0500508)
(0.0853161 0.015475 0.0500508)
(0.082783 0.00443984 0.0500508)
(0.0800492 0.0163771 0.0500508)
(0.0788733 0.00380647 0.0500508)
(0.0788732 0.0165592 0.0500508)
(0.0764341 0.00341131 0.0500508)
(0.0735242 0.0173874 0.0500508)
(0.072414 0.00282473 0.0500508)
(0.0724138 0.0175401 0.0500508)
(0.0704637 0.00254015 0.0500508)
(0.0674743 0.0182191 0.0500508)
(0.0659384 0.00195708 0.0500508)
(0.0659375 0.0184021 0.0500508)
(0.0648565 0.00181767 0.0500508)
(0.0618062 0.018894 0.0500508)
(0.0594941 0.0012249 0.0500508)
(0.059445 0.0191314 0.0500508)
(0.0594466 0.00122057 0.0500508)
(0.0571006 0.0193671 0.0500508)
(0.0546842 0.000787348 0.0500508)
(0.052937 0.0197055 0.0500508)
(0.052937 0.000664978 0.0500508)
(0.0525928 0.0197334 0.0500508)
(0.050207 0.000473778 0.0500508)
(0.0496766 0.0199065 0.0500508)
(0.0496775 0.000448631 0.0500508)
(0.0480508 0.0200029 0.0500508)
(0.0464144 0.00029366 0.0500508)
(0.0464137 0.0200597 0.0500508)
(0.0460579 0.000276731 0.0500508)
(0.043853 0.0201484 0.0500508)
(0.0431488 0.000209273 0.0500508)
(0.0431486 0.0201539 0.0500508)
(0.0422191 0.000187716 0.0500508)
(0.0399851 0.0201788 0.0500508)
(0.0398823 0.000194913 0.0500508)
(0.039882 0.0201766 0.0500508)
(0.0386699 0.000198647 0.0500508)
(0.0366165 0.000261309 0.0500508)
(0.0110864 0.0113864 0.0500508)
(0.0110024 0.0111079 0.0500508)
(0.0109863 0.010992 0.0500508)
(0.011566 0.00784726 0.0500508)
(0.013242 0.00595278 0.0500508)
(0.0131694 0.00601911 0.0500508)
(0.0125644 0.00657157 0.0500508)
(0.0109302 0.0105876 0.0500508)
(0.0109103 0.0104441 0.0500508)
(0.0109144 0.0101812 0.0500508)
(0.011033 0.00912122 0.0500508)
(0.011082 0.00897456 0.0500508)
(0.0109902 0.00937091 0.0500508)
(0.0109206 0.00977662 0.0500508)
(0.0111466 0.00878092 0.0500508)
(0.110883 0.0101737 0.0250508)
(0.110902 0.0101815 0.0125508)
(0.110886 0.010181 0.0375508)
(0.110886 0.0101811 0.0375508)
(0.110902 0.0101816 0.0125508)
(0.110886 0.010181 0.0375508)
(0.110902 0.010181 0.0500508)
)

// edges

328
(
(7 0)
(0 2)
(2 8)
(9 7)
(8 10)
(10 11)
(12 9)
(11 13)
(14 12)
(15 16)
(17 18)
(19 15)
(18 20)
(21 19)
(20 14)
(22 21)
(13 22)
(16 23)
(23 24)
(25 17)
(24 26)
(26 27)
(28 25)
(27 29)
(29 30)
(31 28)
(30 32)
(33 31)
(34 35)
(36 37)
(38 36)
(39 38)
(37 40)
(40 41)
(41 42)
(42 43)
(43 34)
(44 45)
(45 46)
(47 44)
(48 47)
(49 50)
(51 49)
(52 51)
(53 52)
(35 53)
(54 55)
(46 56)
(56 57)
(57 58)
(59 54)
(60 59)
(61 60)
(50 62)
(62 61)
(63 64)
(64 65)
(66 67)
(65 48)
(68 66)
(55 69)
(69 68)
(70 71)
(72 73)
(71 72)
(74 75)
(75 70)
(76 74)
(58 76)
(73 77)
(77 78)
(79 80)
(78 79)
(80 81)
(81 82)
(82 83)
(84 85)
(86 87)
(88 84)
(87 89)
(90 88)
(89 91)
(92 90)
(91 93)
(94 92)
(93 95)
(96 94)
(95 97)
(98 96)
(97 99)
(100 98)
(99 101)
(102 100)
(101 103)
(104 102)
(103 105)
(106 104)
(105 107)
(108 106)
(107 109)
(110 108)
(109 111)
(112 110)
(111 113)
(114 112)
(113 115)
(116 114)
(115 117)
(118 116)
(117 119)
(120 118)
(119 121)
(67 120)
(121 122)
(122 63)
(123 124)
(125 126)
(126 123)
(127 125)
(83 127)
(32 128)
(128 129)
(130 33)
(129 131)
(132 130)
(133 132)
(131 134)
(134 135)
(136 133)
(135 137)
(138 136)
(137 139)
(140 138)
(139 141)
(142 140)
(141 143)
(144 142)
(143 145)
(85 144)
(145 146)
(146 86)
(124 147)
(147 148)
(148 149)
(149 150)
(150 151)
(151 152)
(153 154)
(152 155)
(155 153)
(156 157)
(157 158)
(154 159)
(159 156)
(160 39)
(158 160)
(161 3)
(4 5)
(5 162)
(163 161)
(162 164)
(165 163)
(164 166)
(167 165)
(166 168)
(169 167)
(170 171)
(171 172)
(173 174)
(175 176)
(174 177)
(177 178)
(178 179)
(180 175)
(181 180)
(182 181)
(183 184)
(185 182)
(186 185)
(179 186)
(184 187)
(187 188)
(189 173)
(188 190)
(191 189)
(190 192)
(193 191)
(192 194)
(195 193)
(194 196)
(197 195)
(198 199)
(200 198)
(201 200)
(202 183)
(203 201)
(176 203)
(204 205)
(205 206)
(199 207)
(207 208)
(209 202)
(208 210)
(211 209)
(212 211)
(206 212)
(213 214)
(215 213)
(216 215)
(217 218)
(214 217)
(172 219)
(210 220)
(220 216)
(221 204)
(222 221)
(223 222)
(224 223)
(225 226)
(227 225)
(228 227)
(229 228)
(230 231)
(231 232)
(232 233)
(234 224)
(235 234)
(236 235)
(237 236)
(168 238)
(238 239)
(240 169)
(239 241)
(242 240)
(241 243)
(244 242)
(243 245)
(246 244)
(245 247)
(248 246)
(247 249)
(250 248)
(249 251)
(252 250)
(251 253)
(254 252)
(253 255)
(256 254)
(255 257)
(258 256)
(257 259)
(260 258)
(259 261)
(262 260)
(261 263)
(264 262)
(263 265)
(266 264)
(265 267)
(268 266)
(267 269)
(270 268)
(269 271)
(272 270)
(271 273)
(274 272)
(273 275)
(276 274)
(275 277)
(278 276)
(277 279)
(280 278)
(279 281)
(282 280)
(281 283)
(284 282)
(283 285)
(286 284)
(285 287)
(288 286)
(287 289)
(290 288)
(289 291)
(292 290)
(291 293)
(294 292)
(293 295)
(296 294)
(295 297)
(298 296)
(297 197)
(299 298)
(196 299)
(226 300)
(300 301)
(301 302)
(218 229)
(233 303)
(303 170)
(304 237)
(305 304)
(306 305)
(219 306)
(302 307)
(307 308)
(308 309)
(310 311)
(312 310)
(309 313)
(313 312)
(314 230)
(311 314)
(315 316)
(316 2)
(2 6)
(4 317)
(318 5)
(319 0)
(1 320)
(6 1)
(318 1)
(4 320)
(3 321)
(321 4)
(6 315)
(317 5)
(2 319)
(4 3)
)

// concaveStart mixedStart nonFeatureStart
2 2 7
// internalStart flatStart openStart multipleStart
324 327 327 327
// normals

611
(
(0 0 1)
(0 -0 1)
(0.57136 -0.820699 -0.000715597)
(0 0 -1)
(-0 -0 -1)
(0.137519 0.990499 0.000925007)
(0.796775 0.604276 -0.000136777)
(0 0 -1)
(0.620217 -0.784431 0.000167353)
(-0 -0 -1)
(0.139605 0.990207 0.000921945)
(-0 0 -1)
(0.643979 -0.765043 0.000114752)
(0 0 -1)
(0.132482 -0.991185 0.000319993)
(-0 -0 -1)
(0.138793 0.990321 -0.000154575)
(0 -0 -1)
(0.132157 -0.991229 1.67595e-05)
(-0 0 -1)
(0.19505 0.980793 -7.29154e-05)
(0 0 -1)
(0.245608 -0.969369 -3.56651e-05)
(0 0 -1)
(0.232657 0.972559 -0.000100541)
(0 0 -1)
(0.216782 -0.97622 -0.000188475)
(0 0 -1)
(0.194398 0.980923 -0.000332823)
(0 0 -1)
(0.180984 -0.983486 4.72627e-06)
(0 0 -1)
(0.19459 0.980885 5.83307e-06)
(0 0 -1)
(0.18079 -0.983522 -1.42447e-05)
(0 0 -1)
(0.249412 -0.968397 -1.17281e-06)
(-0 0 -1)
(0.257358 -0.966316 1.61953e-06)
(0 -0 -1)
(0.24613 -0.969237 -5.19569e-06)
(-0 0 -1)
(0.232603 0.972572 -0.000120101)
(-0 0 -1)
(0.231422 -0.972853 3.10995e-05)
(0 0 -1)
(0.23168 -0.972792 2.95177e-05)
(-0 -0 -1)
(0.232615 0.972569 -0.000100471)
(-0 0 -1)
(0.231678 -0.972793 -6.12445e-06)
(0 -0 -1)
(0.231677 -0.972793 -1.83253e-05)
(-0 0 -1)
(0.232624 0.972567 -0.000100471)
(0 -0 -1)
(0.229133 -0.973395 4.69587e-05)
(-0 0 -1)
(0.224474 0.97448 -9.81718e-05)
(0 0 -1)
(-0.66259 0.740358 -0.113332)
(0 -0 -1)
(-0.852385 0.514537 -0.0932247)
(0 0 -1)
(-0.855707 0.516497 -0.0315443)
(-0.923675 0.378185 -0.0616516)
(0 0 -1)
(-0.852408 0.514499 -0.093227)
(0 0 -1)
(-0.768456 0.636565 -0.0652659)
(0 0 -1)
(-0.764913 0.633644 -0.115773)
(0 0 -1)
(-0.765276 0.633939 -0.111687)
(-0.664605 0.742614 -0.0826117)
(0 0 -1)
(-0.271057 -0.961067 -0.0536544)
(-0.330412 -0.943187 -0.0350296)
(0 0 -1)
(-0.271274 -0.961833 -0.0358867)
(0 0 -1)
(-0.214549 -0.975511 -0.0484351)
(0 -0 -1)
(-0.435483 0.893754 -0.107508)
(-0.542994 0.828873 -0.134642)
(0 -0 -1)
(-0.542983 0.82888 -0.134641)
(0 0 -1)
(-0.544686 0.831437 -0.109681)
(-0.662589 0.740359 -0.113332)
(0 0 -1)
(-0.259998 0.962513 -0.0772576)
(0 0 -1)
(-0.329436 -0.940396 -0.0844197)
(0 0 -1)
(-0.411603 -0.907471 -0.0841409)
(0 0 -1)
(-0.412335 -0.909086 -0.0595234)
(0 -0 -1)
(-0.260037 0.962646 -0.0754514)
(-0.344955 0.93473 -0.0853567)
(0 -0 -1)
(-0.34495 0.934732 -0.0853559)
(0 0 -1)
(-0.435488 0.893752 -0.107508)
(-0.345364 0.935847 -0.0700964)
(0 0 -1)
(-0.151434 -0.986964 -0.0545001)
(0 0 -1)
(-0.214314 -0.974469 -0.0669282)
(0 0 -1)
(-0.123747 0.991981 -0.0257023)
(0 0 -1)
(-0.214542 -0.975513 -0.0484338)
(0 0 -1)
(-0.185746 0.981332 -0.0498535)
(0 0 -1)
(-0.260005 0.962512 -0.0772588)
(-0.185734 0.981335 -0.0498515)
(0 0 -1)
(-0.626049 -0.768753 -0.130699)
(0 0 -1)
(-0.74425 -0.659468 -0.1058)
(-0.626053 -0.768749 -0.130699)
(0 0 -1)
(-0.510023 -0.852197 -0.116781)
(-0.628831 -0.77215 -0.091409)
(0 0 -1)
(-0.513412 -0.857855 -0.0222074)
(0 0 -1)
(-0.412341 -0.909083 -0.059524)
(0 0 -1)
(-0.744254 -0.659464 -0.1058)
(0 0 -1)
(-0.742179 -0.657614 -0.129281)
(0 0 -1)
(-0.844215 -0.534043 -0.0458261)
(-0.74448 -0.659685 -0.102788)
(0 0 -1)
(-0.838492 -0.530402 -0.124916)
(0 0 -1)
(-0.838485 -0.530414 -0.124916)
(0 0 -1)
(-0.916978 -0.390128 -0.0833732)
(-0 0 -1)
(0.147969 0.988964 -0.00741802)
(0 -0 -1)
(0.147234 -0.988918 -0.0190581)
(-0 0 -1)
(0.147942 0.988783 -0.0205186)
(0 0 -1)
(0.120777 -0.992276 -0.0283221)
(-0 0 -1)
(0.121025 0.99226 -0.0278073)
(0 -0 -1)
(0.120776 -0.992276 -0.0283222)
(-0 0 -1)
(0.121028 0.99226 -0.0278071)
(0 0 -1)
(0.102097 -0.994742 0.00806701)
(-0 0 -1)
(0.0935892 0.995565 -0.00957678)
(0 -0 -1)
(0.102095 -0.994742 0.00806685)
(-0 0 -1)
(0.0935953 0.995564 -0.0095762)
(0 -0 -1)
(0.0830456 -0.996495 -0.0100161)
(-0 0 -1)
(0.0627743 0.997861 -0.0182402)
(0 -0 -1)
(0.0830464 -0.996495 -0.010016)
(-0 0 -1)
(0.0627763 0.997861 -0.01824)
(0 0 -1)
(0.0492181 -0.998541 -0.0222316)
(-0 -0 -1)
(0.0627639 0.997743 -0.0238619)
(0 -0 -1)
(0.0492254 -0.998697 -0.0134854)
(-0 0 -1)
(0.0245003 0.999553 -0.0171249)
(0 0 -1)
(0.0492254 -0.998697 -0.0134854)
(-0 0 -1)
(0.0244975 0.999553 -0.0171252)
(0 0 -1)
(0.0110359 -0.999534 -0.0284599)
(-0 -0 -1)
(0.024499 0.99966 -0.00897729)
(0 -0 -1)
(0.0110359 -0.999534 -0.0284599)
(0 0 -1)
(-0.0189252 0.999401 -0.0289804)
(0 0 -1)
(0.0110414 -0.999925 -0.00534089)
(0 0 -1)
(-0.0189286 0.999401 -0.0289809)
(0 0 -1)
(-0.0334554 -0.999433 0.0039127)
(0 -0 -1)
(-0.0189259 0.999594 -0.0213206)
(0 -0 -1)
(-0.0334276 -0.998588 -0.0412818)
(0 0 -1)
(-0.0679912 0.996658 -0.0452878)
(0 -0 -1)
(-0.0646236 -0.997847 -0.0111532)
(0 0 -1)
(-0.0680545 0.997505 0.0187748)
(0 0 -1)
(-0.0646207 -0.997848 -0.0111527)
(0 -0 -1)
(-0.123676 0.991487 -0.040715)
(0 0 -1)
(-0.0959442 -0.995366 -0.00639552)
(0 -0 -1)
(-0.123681 0.991486 -0.0407158)
(0 0 -1)
(-0.0958583 -0.994478 -0.0427115)
(0 0 -1)
(-0.151587 -0.987955 0.0310723)
(0 0 -1)
(-0.964164 -0.23631 -0.120605)
(0 0 -1)
(-0.918876 -0.390654 -0.0552907)
(-0.970268 -0.237804 -0.0450472)
(0 0 -1)
(-0.918772 -0.390899 -0.0552852)
(0 0 -1)
(-0.914762 -0.389175 -0.108411)
(-0 0 -1)
(0.227126 -0.973865 -8.78892e-06)
(0 -0 -1)
(0.227191 -0.97385 -8.78905e-06)
(-0 0 -1)
(0.22449 0.974476 -9.81718e-05)
(0 -0 -1)
(0.220681 -0.975346 -0.00016253)
(-0 0 -1)
(0.215775 0.976443 -0.000135327)
(-0 -0 -1)
(0.215687 0.976134 0.0253162)
(-0 0 -1)
(0.220449 -0.974323 0.0457903)
(0 0 -1)
(0.213429 -0.976756 0.0199105)
(-0 -0 -1)
(0.197977 0.980046 -0.0177665)
(0 0 -1)
(0.197969 -0.980031 -0.0186535)
(-0 -0 -1)
(0.197976 0.980046 -0.0177665)
(0 0 -1)
(0.198006 -0.980199 -0.00176683)
(-0 -0 -1)
(0.198008 0.9802 -0.000882681)
(0 -0 -1)
(0.198005 -0.980199 -0.00176688)
(-0 0 -1)
(0.172948 0.984864 -0.0114997)
(0 0 -1)
(0.172222 -0.98497 -0.013153)
(-0 -0 -1)
(0.172947 0.984864 -0.0114998)
(0 -0 -1)
(0.172222 -0.98497 -0.013153)
(-0 0 -1)
(0.147975 0.988963 -0.00741771)
(0 0 -1)
(0.14726 -0.989098 -0.000135488)
(0 -0 -1)
(0.147235 -0.988918 -0.0190581)
(0 0 -1)
(-0.96718 -0.23702 -0.0915692)
(0 0 -1)
(-0.967162 -0.237095 -0.0915682)
(0 0 -1)
(-0.99361 -0.0797533 -0.0798712)
(0 0 -1)
(-0.98999 -0.0794806 -0.116629)
(0 0 -1)
(-0.995389 -0.0799374 -0.0530169)
(0 0 -1)
(-0.993098 0.0686356 -0.0951044)
(0 -0 -1)
(-0.968576 0.219867 -0.116272)
(0 0 -1)
(-0.993099 0.0686199 -0.0951044)
(-0.973416 0.221351 -0.0588655)
(0 0 -1)
(-0.970602 0.220368 -0.0967998)
(-0.92293 0.377842 -0.0737211)
(0 0 -1)
(-0.967065 0.219589 -0.128712)
(0 0 -1)
(-0.970603 0.220363 -0.0967998)
(0 0 -1)
(-0.923701 0.378121 -0.061653)
(0 0 -1)
(-0.919486 0.376416 -0.113383)
(0.255368 -0.966844 -0.000391856)
(0 0 1)
(0.287348 0.957826 -0.000361656)
(0 0 1)
(0.284992 0.95853 -0.000361029)
(0 0 1)
(0.253401 -0.967361 -0.000392368)
(0 0 1)
(0.285477 0.958386 0.000175158)
(0 0 1)
(0.253535 -0.967326 0.000134475)
(0 -0 1)
(0.239502 0.970896 0.000118941)
(0 0 1)
(0.253867 -0.967239 -0.000188466)
(0 -0 1)
(0.239511 0.970894 0.000118941)
(0 0 1)
(0.228957 -0.973437 -0.000141258)
(0 0 1)
(-0.820801 -0.561063 0.107212)
(-0.748477 -0.658622 0.0774564)
(0 0 1)
(-0.121479 0.992311 0.0236912)
(0 0 1)
(-0.351084 0.934272 0.0622606)
(0 0 1)
(-0.161436 0.986198 0.0367727)
(0 -0 1)
(-0.16144 0.986197 0.0367733)
(0 0 1)
(-0.204912 0.977584 0.0483768)
(-0 0 1)
(-0.351171 0.934238 0.0622757)
(-0.300525 0.952137 0.0558599)
(-0 0 1)
(-0.30054 0.952132 0.0558624)
(0 0 1)
(-0.166277 -0.985983 -0.0137516)
(-0 0 1)
(-0.25205 0.966118 0.055555)
(0 0 1)
(-0.252442 0.9676 0.00489455)
(-0.204909 0.977585 0.0483763)
(-0 0 1)
(-0.166203 -0.985584 0.0316345)
(0 0 1)
(-0.128063 -0.991681 0.0130124)
(-0 0 1)
(-0.121475 0.992312 0.0236906)
(0 0 1)
(-0.0928294 -0.995452 0.0213921)
(-0 0 1)
(-0.086336 0.996233 0.00817565)
(0 0 1)
(-0.0928297 -0.995452 0.0213922)
(-0 0 1)
(-0.0532835 0.998496 0.0128696)
(0 0 1)
(-0.0601831 -0.99799 0.0198253)
(-0 0 1)
(-0.0533167 0.998569 0.00420746)
(0 0 1)
(-0.0601827 -0.99799 0.0198253)
(-0 0 1)
(-0.0212372 0.999755 0.00618205)
(-0 0 1)
(-0.543036 0.836355 0.0749751)
(-0.476485 0.877228 0.0585902)
(-0 0 1)
(-0.47646 0.877242 0.0585877)
(0 0 1)
(-0.207457 -0.977104 0.0472138)
(-0 0 1)
(-0.409323 0.909399 0.073806)
(-0 0 1)
(-0.409323 0.9094 0.0738059)
(-0 -0 1)
(-0.351236 -0.934185 0.0627127)
(0 0 1)
(-0.300334 -0.952515 0.0501471)
(0 0 1)
(-0.543038 0.836354 0.0749753)
(0 0 1)
(-0.611541 0.787808 0.073323)
(0 0 1)
(-0.207662 -0.978079 0.0154432)
(0 0 1)
(-0.611744 0.787994 0.0695261)
(0 0 1)
(-0.252616 -0.966047 0.0542061)
(0 0 1)
(-0.252804 -0.96677 0.038032)
(-0.300238 -0.952209 0.056168)
(-0 0 1)
(-0.763051 0.639731 0.092184)
(0 0 1)
(-0.765609 0.6419 0.0425119)
(-0.687072 0.720741 0.0920029)
(0 0 1)
(-0.835388 0.547569 0.0479102)
(-0.763156 0.639799 0.0908358)
(0 -0 1)
(-0.748556 -0.658531 0.0774643)
(0 0 1)
(-0.611719 0.788014 0.0695235)
(0 0 1)
(-0.688563 0.72233 0.0641858)
(-0 -0 1)
(-0.351284 -0.934473 0.0579682)
(-0.407885 -0.910151 0.0724931)
(0 0 1)
(-0.40889 -0.912443 0.0160044)
(0 0 1)
(-0.466711 -0.882484 0.058337)
(-0 0 1)
(-0.95193 0.286871 0.107399)
(-0.90159 0.428741 0.0575882)
(-0 0 1)
(-0.903059 0.429446 0.00774057)
(-0 0 1)
(-0.834555 0.546931 0.0662134)
(-0 0 1)
(-0.944685 -0.315529 0.0895061)
(0 0 1)
(-0.893015 -0.449959 0.00777213)
(0 0 1)
(-0.892 -0.449451 0.0482678)
(-0 -0 1)
(-0.467036 -0.883056 -0.0457155)
(-0.528588 -0.845241 0.0784951)
(0 0 1)
(-0.530175 -0.847789 0.0129402)
(0 0 1)
(-0.598513 -0.796672 0.0842365)
(0 0 1)
(0.239491 0.970898 -0.000146802)
(0 0 1)
(0.239618 0.970867 -0.000184862)
(0 0 1)
(0.229061 -0.973412 -6.16379e-05)
(0 -0 1)
(0.225707 0.974195 -0.000222502)
(0 0 1)
(0.229035 -0.973418 3.93022e-05)
(0 -0 1)
(0.225716 0.974193 -8.71737e-05)
(0 0 1)
(0.229034 -0.973418 1.81845e-05)
(0 -0 1)
(0.225706 0.974195 0.000124747)
(0 0 1)
(0.229056 -0.973413 1.81845e-05)
(0 -0 1)
(0.22572 0.974192 0.000326536)
(0 0 1)
(0.218059 -0.975936 0.000510285)
(0 0 1)
(0.212658 0.977127 0.000127095)
(0 -0 1)
(0.217964 -0.97552 -0.0291936)
(0 -0 1)
(0.212651 0.97705 -0.0123427)
(0 0 1)
(0.203265 -0.979119 0.00321103)
(0 -0 1)
(0.198971 0.980002 0.00260331)
(0 0 1)
(0.203262 -0.979119 0.00321107)
(0 -0 1)
(0.198971 0.980002 0.00260331)
(0 0 1)
(0.188908 -0.981995 0.000332473)
(0 -0 1)
(0.183988 0.982928 -0.000833278)
(0 0 1)
(0.188908 -0.981995 0.00033248)
(0 -0 1)
(0.183991 0.982928 -0.000833381)
(0 0 1)
(0.1743 -0.984688 -0.00304204)
(0 -0 1)
(0.168812 0.985642 -0.0034607)
(0 0 1)
(0.1743 -0.984688 -0.00304205)
(0 -0 1)
(0.168815 0.985642 -0.00346086)
(0 0 1)
(0.159913 -0.987112 0.00618606)
(0 -0 1)
(0.153024 0.98822 0.00213748)
(0 0 1)
(0.159915 -0.987111 0.00618601)
(0 -0 1)
(0.15302 0.988221 0.00213763)
(0 0 1)
(0.144384 -0.98952 0.00182382)
(0 -0 1)
(0.136189 0.990682 -0.0009765)
(0 0 1)
(0.144383 -0.98952 0.00182387)
(0 -0 1)
(0.136187 0.990683 -0.000976369)
(0 0 1)
(0.127792 -0.991797 -0.00264083)
(0 -0 1)
(0.118231 0.992985 0.00164496)
(0 0 1)
(0.127791 -0.991798 -0.00264073)
(0 -0 1)
(0.118234 0.992984 0.00164472)
(0 0 1)
(0.109841 -0.993642 -0.0247093)
(0 -0 1)
(0.100033 0.99498 0.00277211)
(0 0 1)
(0.0905795 -0.995855 -0.00827633)
(0 0 1)
(0.100029 0.994981 0.00277245)
(0 0 1)
(0.0905898 -0.995854 -0.00827733)
(0 -0 1)
(0.0810021 0.996704 -0.00449651)
(0 0 1)
(0.0698649 -0.997535 0.00649632)
(0 -0 1)
(0.0809948 0.996704 -0.00449568)
(0 0 1)
(0.0698647 -0.997535 0.00649634)
(0 -0 1)
(0.0592297 0.998208 0.00855151)
(0 0 1)
(0.0474387 -0.998872 0.00196284)
(0 0 1)
(0.0592299 0.998208 0.00855148)
(0 0 1)
(0.0474382 -0.998872 0.0019629)
(0 -0 1)
(0.0346193 0.999333 0.0116234)
(0 0 1)
(0.047438 -0.998874 -1.13233e-05)
(0 -0 1)
(0.0346193 0.999333 0.0116234)
(0 0 1)
(0.0231815 -0.999696 0.0084331)
(0 -0 1)
(0.0078496 0.999927 0.00923633)
(0 0 1)
(0.0231821 -0.999731 0.000145526)
(0 -0 1)
(0.00785818 0.999926 0.00923517)
(0 0 1)
(-0.00307971 -0.999907 0.01332)
(0 -0 1)
(-0.0212369 0.999761 0.00526485)
(0 0 1)
(-0.00307989 -0.999907 0.0133201)
(0 -0 1)
(-0.0212562 0.999755 0.00618487)
(0 0 1)
(-0.0304992 -0.999426 0.0147489)
(0 0 1)
(-0.0305002 -0.999426 0.014749)
(0 0 1)
(-0.950953 0.2866 0.116402)
(0 0 1)
(-0.950952 0.286603 0.116402)
(0 0 1)
(-0.986588 0.136858 0.0889566)
(0 0 1)
(-0.834539 0.546956 0.0662126)
(0 0 1)
(-0.89253 -0.448394 0.0482964)
(-0.824851 -0.563863 0.0409666)
(-0 -0 1)
(-0.599883 -0.798485 0.0506127)
(-0.672206 -0.736061 0.0797042)
(0 0 1)
(-0.672175 -0.73609 0.0797011)
(0 -0 1)
(-0.746962 -0.657138 0.101079)
(0 0 1)
(-0.986002 0.136819 0.0952883)
(0 0 1)
(-0.986005 0.136799 0.0952884)
(0 0 1)
(-0.999816 -0.0153622 -0.0115087)
(0 0 1)
(-0.944243 -0.315411 0.0944477)
(-0.979915 -0.168049 0.107356)
(0 0 1)
(-0.998672 -0.0153288 0.0491954)
(0 0 1)
(-0.979914 -0.168057 0.107356)
(0 0 1)
(-0.944683 -0.315535 0.089506)
(0 0 1)
(-0.942269 -0.314751 0.114286)
(0.999999 0 0.00151217)
(0.55321 -0.833042 0.000316741)
(1 0 -8.34465e-06)
(0.274721 0.961524 -0.00021764)
(0.999999 0 -0.00125587)
(1 0 0.000264049)
(0.381447 -0.924391 0.000447513)
(0.999999 0 0.00127196)
(0.381447 -0.924391 -3.71328e-06)
(0.274721 0.961524 -1.34067e-06)
(0.357884 0.933766 0.00049028)
(0.999999 0 0.00127196)
)

// edgeNormals

328
(
2(4 5)
2(4 6)
2(7 8)
2(9 10)
2(11 12)
2(13 14)
2(15 16)
2(17 18)
2(19 20)
2(21 22)
2(23 24)
2(25 26)
2(27 28)
2(29 30)
2(31 32)
2(33 34)
2(35 36)
2(37 38)
2(39 40)
2(41 42)
2(43 44)
2(45 46)
2(47 48)
2(49 50)
2(51 52)
2(53 54)
2(55 56)
2(57 58)
2(59 60)
2(61 62)
2(63 64)
2(63 65)
2(66 67)
2(68 69)
2(70 71)
2(72 73)
2(72 74)
2(75 76)
2(75 77)
2(78 79)
2(80 81)
2(82 83)
2(82 84)
2(85 86)
2(87 88)
2(87 89)
2(90 91)
2(92 93)
2(94 95)
2(96 97)
2(98 99)
2(98 100)
2(101 102)
2(103 104)
2(103 105)
2(106 107)
2(108 109)
2(110 111)
2(112 113)
2(114 115)
2(116 117)
2(116 118)
2(119 120)
2(121 122)
2(121 123)
2(124 125)
2(124 126)
2(127 128)
2(129 130)
2(131 132)
2(133 134)
2(135 136)
2(135 137)
2(138 139)
2(140 141)
2(142 143)
2(144 145)
2(146 147)
2(148 149)
2(150 151)
2(152 153)
2(154 155)
2(156 157)
2(158 159)
2(160 161)
2(162 163)
2(164 165)
2(166 167)
2(168 169)
2(170 171)
2(172 173)
2(174 175)
2(176 177)
2(178 179)
2(180 181)
2(182 183)
2(184 185)
2(186 187)
2(188 189)
2(190 191)
2(192 193)
2(194 195)
2(196 197)
2(198 199)
2(200 201)
2(202 203)
2(204 205)
2(206 207)
2(208 209)
2(210 211)
2(212 213)
2(214 215)
2(216 217)
2(218 219)
2(220 221)
2(222 223)
2(224 225)
2(224 226)
2(227 228)
2(229 230)
2(231 232)
2(233 234)
2(235 236)
2(237 238)
2(239 240)
2(241 242)
2(243 244)
2(245 246)
2(247 248)
2(249 250)
2(251 252)
2(253 254)
2(255 256)
2(257 258)
2(259 260)
2(261 262)
2(263 264)
2(265 266)
2(267 268)
2(269 270)
2(271 272)
2(273 274)
2(275 276)
2(277 278)
2(279 280)
2(281 282)
2(283 284)
2(285 286)
2(287 288)
2(287 289)
2(290 291)
2(290 292)
2(293 294)
2(295 296)
2(297 298)
2(299 300)
2(1 301)
2(302 303)
2(304 305)
2(306 307)
2(308 309)
2(310 311)
2(312 313)
2(314 315)
2(316 317)
2(318 319)
2(320 321)
2(320 322)
2(323 324)
2(325 326)
2(327 328)
2(329 330)
2(331 332)
2(333 334)
2(333 335)
2(336 337)
2(338 339)
2(340 341)
2(342 343)
2(342 344)
2(345 346)
2(347 348)
2(349 350)
2(351 352)
2(353 354)
2(355 356)
2(357 358)
2(359 360)
2(361 362)
2(363 364)
2(365 366)
2(367 368)
2(367 369)
2(370 371)
2(372 373)
2(374 375)
2(376 377)
2(378 379)
2(380 381)
2(382 383)
2(384 385)
2(386 387)
2(388 389)
2(390 391)
2(392 393)
2(392 394)
2(395 396)
2(397 398)
2(397 399)
2(400 401)
2(400 402)
2(403 404)
2(405 406)
2(407 408)
2(409 410)
2(409 411)
2(412 413)
2(414 415)
2(416 417)
2(416 418)
2(419 420)
2(421 422)
2(423 424)
2(425 426)
2(427 428)
2(429 430)
2(429 431)
2(432 433)