/*--------------------------------*- C++ -*----------------------------------*\
| =========                 |                                                 |
| \\      /  F ield         | OpenFOAM: The Open Source CFD Toolbox           |
|  \\    /   O peration     | Version:  2.2.0                                 |
|   \\  /    A nd           | Web:      www.OpenFOAM.org                      |
|    \\/     M anipulation  |                                                 |
\*---------------------------------------------------------------------------*/
FoamFile
{
    version     2.0;
    format      ascii;
    class       dictionary;
    object      blockMeshDict;
}
// * * * * * * * * * * * * * * * * * * * * * * * * * * * * * * * * * * * * * //

// multiply all vertex coordinates by this scaling factor
convertToMeters 0.1;

vertices        
(
    (-1 -1 0)
    (3 -1 0)
    (3 1 0)
    (-1 1 0)

    (-1 -1 0.5)
    (3 -1 0.5)
    (3 1 0.5)
    (-1 1 0.5)
);

blocks
(
    hex (0 1 2 3 4 5 6 7) (160 80 20) simpleGrading (1 1 1)
);

edges
(
);

/*boundary
(
    allBoundary
    {
        type patch;
        faces
        (
            (3 7 6 2)
            (0 4 7 3)
            (2 6 5 1)
            (1 5 4 0)
            (0 3 2 1)
            (4 5 6 7)
        );
    }
);*/

patches         
(
    patch inlet
    (
        (0 3 7 4)
    )

    patch outlet
    (
        (1 2 6 5)
    )

    patch farfield
    (
        (0 1 5 4)
        (2 3 7 6)
    )

    patch frontplane
    (
        (0 1 2 3)
    )

    patch backplane
    (
        (4 5 6 7)
    )
);

mergePatchPairs 
(
);

// ************************************************************************* //
