/*--------------------------------*- C++ -*----------------------------------*\
| =========                 |                                                 |
| \\      /  F ield         | OpenFOAM: The Open Source CFD Toolbox           |
|  \\    /   O peration     | Version:  2.2.0                                 |
|   \\  /    A nd           | Web:      www.OpenFOAM.org                      |
|    \\/     M anipulation  |                                                 |
\*---------------------------------------------------------------------------*/
FoamFile
{
    version     2.0;
    format      ascii;
    class       dictionary;
    object      blockMeshDict;
}
// * * * * * * * * * * * * * * * * * * * * * * * * * * * * * * * * * * * * * //

// multiply all vertex coordinates by this scaling factor
convertToMeters 0.1;

vertices        
(
    (-4 -4 0)
    (7 -4 0)
    (7 0.105 0)
    (-4 0.105 0)

    (-4 -4 0.5)
    (7 -4 0.5)
    (7 0.105 0.5)
    (-4 0.105 0.5)

    // chord line at y = 0.105

    (7 4 0)
    (-4 4 0)

    (7 4 0.5)
    (-4 4 0.5)
);

blocks
(
    hex (0 1 2 3 4 5 6 7) (110 80 5) simpleGrading (1 0.1 1)
    hex (3 2 8 9 7 6 10 11) (110 80 5) simpleGrading (1 10 1)
);

edges
(
);

patches         
(
    patch inlet
    (
        (0 3 7 4)
        (3 9 11 7)
        (8 9 11 10)
        (0 1 5 4)
    )

    patch outlet
    (
        (1 2 6 5)
        (2 8 10 6)
    )

    patch frontplane
    (
        (4 5 6 7)
        (7 6 10 11)
    )

    patch backplane
    (
        (0 1 2 3)
        (3 2 8 9)
    )
);

mergePatchPairs 
(
);

// ************************************************************************* //
