/*--------------------------------*- C++ -*----------------------------------*\
| =========                 |                                                 |
| \\      /  F ield         | OpenFOAM: The Open Source CFD Toolbox           |
|  \\    /   O peration     | Version:  2.2.0                                 |
|   \\  /    A nd           | Web:      www.OpenFOAM.org                      |
|    \\/     M anipulation  |                                                 |
\*---------------------------------------------------------------------------*/
FoamFile
{
    version     2.0;
    format      ascii;
    class       dictionary;
    object      blockMeshDict;
}
// * * * * * * * * * * * * * * * * * * * * * * * * * * * * * * * * * * * * * //

// multiply all vertex coordinates by this scaling factor
convertToMeters 0.1;

vertices        
(
    (-4 -4 0)
    (7 -4 0)
    (7 4 0)
    (-4 4 0)

    (-4 -4 0.5)
    (7 -4 0.5)
    (7 4 0.5)
    (-4 4 0.5)
);

blocks
(
    hex (0 1 2 3 4 5 6 7) (55 40 5) simpleGrading (1 1 1)
);

edges
(
);

patches         
(
    patch inlet
    (
        (0 3 7 4)
        (2 3 7 6)
        (0 1 5 4)
    )

    patch outlet
    (
        (1 2 6 5)
    )

    patch frontplane
    (
        (4 5 6 7)
    )

    patch backplane
    (
        (0 1 2 3)
    )
);

mergePatchPairs 
(
);

// ************************************************************************* //
