/*--------------------------------*- C++ -*----------------------------------*\
| =========                 |                                                 |
| \\      /  F ield         | OpenFOAM: The Open Source CFD Toolbox           |
|  \\    /   O peration     | Version:  2.2.0                                 |
|   \\  /    A nd           | Web:      www.OpenFOAM.org                      |
|    \\/     M anipulation  |                                                 |
\*---------------------------------------------------------------------------*/
FoamFile
{
    version     2.0;
    format      ascii;
    class       polyBoundaryMesh;
    location    "constant/polyMesh";
    object      boundary;
}
// * * * * * * * * * * * * * * * * * * * * * * * * * * * * * * * * * * * * * //

4
(
    inlet
    {
        type            patch;
        nFaces          750;
        startFace       30325;
    }
    outlet
    {
        type            patch;
        nFaces          200;
        startFace       31075;
    }
    frontplane
    {
        type            symmetryPlane;
        nFaces          2200;
        startFace       31275;
    }
    backplane
    {
        type            symmetryPlane;
        nFaces          2200;
        startFace       33475;
    }
)

// ************************************************************************* //
