/*--------------------------------*- C++ -*----------------------------------*\
| =========                 |                                                 |
| \\      /  F ield         | OpenFOAM: The Open Source CFD Toolbox           |
|  \\    /   O peration     | Version:  2.2.0                                 |
|   \\  /    A nd           | Web:      www.OpenFOAM.org                      |
|    \\/     M anipulation  |                                                 |
\*---------------------------------------------------------------------------*/
FoamFile
{
    version     2.0;
    format      ascii;
    class       dictionary;
    location    "system";
    object      controlDict;
}
// * * * * * * * * * * * * * * * * * * * * * * * * * * * * * * * * * * * * * //

application     potentialFoam;

startFrom       startTime;

startTime       0;

stopAt          endTime;

endTime         1;

deltaT          1;

writeControl    timeStep;

writeInterval   1;

purgeWrite      0;

writeFormat     ascii;

writePrecision  6;

writeCompression off;

timeFormat      general;

timePrecision   6;

runTimeModifiable true;

functions
{
    forceCoeffsFlipper
    {
        type forceCeoffs;
        functionObjectLibs ("libforces.so");
        patches ("Flipper_Flipper");

        pName p;
        UName U;
        rhoName rhoInf;
        rhoInf 1.0;

        log true;

        CofR (0.25 0 0);
        liftDir (0 1 0);
        dragDir (1 0 0);
        pitchAxis (0 0 1);
        magUInf 26;
        lRef 1;
        Aref 1;

        outputControl timeStep;
        outputInterval 1;
    }
}

// ************************************************************************* //
