/*--------------------------------*- C++ -*----------------------------------*\
| =========                 |                                                 |
| \\      /  F ield         | OpenFOAM: The Open Source CFD Toolbox           |
|  \\    /   O peration     | Version:  2.2.0                                 |
|   \\  /    A nd           | Web:      www.OpenFOAM.org                      |
|    \\/     M anipulation  |                                                 |
\*---------------------------------------------------------------------------*/
FoamFile
{
    version     2.0;
    format      ascii;
    class       volVectorField;
    location    "0";
    object      U;
}
// * * * * * * * * * * * * * * * * * * * * * * * * * * * * * * * * * * * * * //

dimensions      [0 1 -1 0 0 0 0];

internalField   uniform (29.7080421 4.17519303 0);  // set AoA = 8 deg

boundaryField
{
    inlet
    {
        type            freestream;
        freestreamValue uniform (29.7080421 4.17519303 0);  // set AoA = 8 deg
    }
    outlet
    {
        type            freestream;
        freestreamValue uniform (29.7080421 4.17519303 0);  // set AoA = 8 deg
    }
    frontplane
    {
        type            symmetryPlane;  // periodic BC
    }
    backplane
    {
        type            symmetryPlane;  // periodic BC
    }
    Flipper_Flipper
    {
        type            fixedValue;
        value           uniform (0 0 0);  // no slip BC
    }
}


// ************************************************************************* //
